dir="%ANALYSIS_CODE%_%VERSION%"
name="Simulation Monitor"
code="%ANALYSIS_CODE%"
png_thumbnail="%ANALYSIS_CODE%-pngThumbnail.png"
version="%VERSION%"
version_code="%VERSION%"
std_cmd="#"
gpu_cmd="#"
mpi_cmd="#"
description="Simulation progress monitoring tool. The following analyses are supported: ANSYS CFX, ANSYS FLUENT, StarCCM. The jupyter4all feature needs to be enabled."
setup_command="source %MOUNT_POINT%/%VERSION%/setup_command.sh ${JOB_USER} ${MPI_ROLE}"